data_framework_1

_audit_creation_method RASPA-1.0
_audit_creation_date 2020-11-13
_audit_author_name 'Leopold Talirz'

_cell_length_a    17.22
_cell_length_b    17.04
_cell_length_c    20
_cell_angle_alpha 90
_cell_angle_beta  90
_cell_angle_gamma 90
_cell_volume      5868.58

_symmetry_cell_setting          triclinic
_symmetry_space_group_name_Hall 'P 1'
_symmetry_space_group_name_H-M  'P 1'
_symmetry_Int_Tables_number     1

_symmetry_equiv_pos_as_xyz 'x,y,z'

loop_
_atom_site_label
_atom_site_type_symbol
_atom_site_fract_x
_atom_site_fract_y
_atom_site_fract_z
_atom_site_charge
C        C      0.000000000000     0.041667500000     0.000000000000     0          
C        C      0.071428571429     0.166667500000     0.000000000000     0          
C        C      0.000000000000     0.208332500000     0.000000000000     0          
C        C      0.071428571429     0.083332500000     0.000000000000     0          
C        C      0.000000000000     0.291667500000     0.000000000000     0          
C        C      0.071428571429     0.416667500000     0.000000000000     0          
C        C      0.000000000000     0.458332500000     0.000000000000     0          
C        C      0.071428571429     0.333332500000     0.000000000000     0          
C        C      0.000000000000     0.541667500000     0.000000000000     0          
C        C      0.071428571429     0.666667500000     0.000000000000     0          
C        C      0.000000000000     0.708332500000     0.000000000000     0          
C        C      0.071428571429     0.583332500000     0.000000000000     0          
C        C      0.000000000000     0.791667500000     0.000000000000     0          
C        C      0.071428571429     0.916667500000     0.000000000000     0          
C        C      0.000000000000     0.958332500000     0.000000000000     0          
C        C      0.071428571429     0.833332500000     0.000000000000     0          
C        C      0.142857142857     0.041667500000     0.000000000000     0          
C        C      0.214285714286     0.166667500000     0.000000000000     0          
C        C      0.142857142857     0.208332500000     0.000000000000     0          
C        C      0.214285714286     0.083332500000     0.000000000000     0          
C        C      0.142857142857     0.291667500000     0.000000000000     0          
C        C      0.214285714286     0.416667500000     0.000000000000     0          
C        C      0.142857142857     0.458332500000     0.000000000000     0          
C        C      0.214285714286     0.333332500000     0.000000000000     0          
C        C      0.142857142857     0.541667500000     0.000000000000     0          
C        C      0.214285714286     0.666667500000     0.000000000000     0          
C        C      0.142857142857     0.708332500000     0.000000000000     0          
C        C      0.214285714286     0.583332500000     0.000000000000     0          
C        C      0.142857142857     0.791667500000     0.000000000000     0          
C        C      0.214285714286     0.916667500000     0.000000000000     0          
C        C      0.142857142857     0.958332500000     0.000000000000     0          
C        C      0.214285714286     0.833332500000     0.000000000000     0          
C        C      0.285714285714     0.041667500000     0.000000000000     0          
C        C      0.357142857143     0.166667500000     0.000000000000     0          
C        C      0.285714285714     0.208332500000     0.000000000000     0          
C        C      0.357142857143     0.083332500000     0.000000000000     0          
C        C      0.285714285714     0.291667500000     0.000000000000     0          
C        C      0.357142857143     0.416667500000     0.000000000000     0          
C        C      0.285714285714     0.458332500000     0.000000000000     0          
C        C      0.357142857143     0.333332500000     0.000000000000     0          
C        C      0.285714285714     0.541667500000     0.000000000000     0          
C        C      0.357142857143     0.666667500000     0.000000000000     0          
C        C      0.285714285714     0.708332500000     0.000000000000     0          
C        C      0.357142857143     0.583332500000     0.000000000000     0          
C        C      0.285714285714     0.791667500000     0.000000000000     0          
C        C      0.357142857143     0.916667500000     0.000000000000     0          
C        C      0.285714285714     0.958332500000     0.000000000000     0          
C        C      0.357142857143     0.833332500000     0.000000000000     0          
C        C      0.428571428571     0.041667500000     0.000000000000     0          
C        C      0.500000000000     0.166667500000     0.000000000000     0          
C        C      0.428571428571     0.208332500000     0.000000000000     0          
C        C      0.500000000000     0.083332500000     0.000000000000     0          
C        C      0.428571428571     0.291667500000     0.000000000000     0          
C        C      0.500000000000     0.416667500000     0.000000000000     0          
C        C      0.428571428571     0.458332500000     0.000000000000     0          
C        C      0.500000000000     0.333332500000     0.000000000000     0          
C        C      0.428571428571     0.541667500000     0.000000000000     0          
C        C      0.500000000000     0.666667500000     0.000000000000     0          
C        C      0.428571428571     0.708332500000     0.000000000000     0          
C        C      0.500000000000     0.583332500000     0.000000000000     0          
C        C      0.428571428571     0.791667500000     0.000000000000     0          
C        C      0.500000000000     0.916667500000     0.000000000000     0          
C        C      0.428571428571     0.958332500000     0.000000000000     0          
C        C      0.500000000000     0.833332500000     0.000000000000     0          
C        C      0.571428571429     0.041667500000     0.000000000000     0          
C        C      0.642857142857     0.166667500000     0.000000000000     0          
C        C      0.571428571429     0.208332500000     0.000000000000     0          
C        C      0.642857142857     0.083332500000     0.000000000000     0          
C        C      0.571428571429     0.291667500000     0.000000000000     0          
C        C      0.642857142857     0.416667500000     0.000000000000     0          
C        C      0.571428571429     0.458332500000     0.000000000000     0          
C        C      0.642857142857     0.333332500000     0.000000000000     0          
C        C      0.571428571429     0.541667500000     0.000000000000     0          
C        C      0.642857142857     0.666667500000     0.000000000000     0          
C        C      0.571428571429     0.708332500000     0.000000000000     0          
C        C      0.642857142857     0.583332500000     0.000000000000     0          
C        C      0.571428571429     0.791667500000     0.000000000000     0          
C        C      0.642857142857     0.916667500000     0.000000000000     0          
C        C      0.571428571429     0.958332500000     0.000000000000     0          
C        C      0.642857142857     0.833332500000     0.000000000000     0          
C        C      0.714285714286     0.041667500000     0.000000000000     0          
C        C      0.785714285714     0.166667500000     0.000000000000     0          
C        C      0.714285714286     0.208332500000     0.000000000000     0          
C        C      0.785714285714     0.083332500000     0.000000000000     0          
C        C      0.714285714286     0.291667500000     0.000000000000     0          
C        C      0.785714285714     0.416667500000     0.000000000000     0          
C        C      0.714285714286     0.458332500000     0.000000000000     0          
C        C      0.785714285714     0.333332500000     0.000000000000     0          
C        C      0.714285714286     0.541667500000     0.000000000000     0          
C        C      0.785714285714     0.666667500000     0.000000000000     0          
C        C      0.714285714286     0.708332500000     0.000000000000     0          
C        C      0.785714285714     0.583332500000     0.000000000000     0          
C        C      0.714285714286     0.791667500000     0.000000000000     0          
C        C      0.785714285714     0.916667500000     0.000000000000     0          
C        C      0.714285714286     0.958332500000     0.000000000000     0          
C        C      0.785714285714     0.833332500000     0.000000000000     0          
C        C      0.857142857143     0.041667500000     0.000000000000     0          
C        C      0.928571428571     0.166667500000     0.000000000000     0          
C        C      0.857142857143     0.208332500000     0.000000000000     0          
C        C      0.928571428571     0.083332500000     0.000000000000     0          
C        C      0.857142857143     0.291667500000     0.000000000000     0          
C        C      0.928571428571     0.416667500000     0.000000000000     0          
C        C      0.857142857143     0.458332500000     0.000000000000     0          
C        C      0.928571428571     0.333332500000     0.000000000000     0          
C        C      0.857142857143     0.541667500000     0.000000000000     0          
C        C      0.928571428571     0.666667500000     0.000000000000     0          
C        C      0.857142857143     0.708332500000     0.000000000000     0          
C        C      0.928571428571     0.583332500000     0.000000000000     0          
C        C      0.857142857143     0.791667500000     0.000000000000     0          
C        C      0.928571428571     0.916667500000     0.000000000000     0          
C        C      0.857142857143     0.958332500000     0.000000000000     0          
C        C      0.928571428571     0.833332500000     0.000000000000     0          


